Version 4
SHEET 1 880 680
WIRE -208 -288 -288 -288
WIRE -48 -288 -128 -288
WIRE 80 -288 32 -288
WIRE 208 -288 80 -288
WIRE 208 -224 208 -288
WIRE 80 -128 80 -288
WIRE 208 -128 208 -160
WIRE -288 -112 -288 -288
WIRE 208 -16 208 -48
WIRE -288 96 -288 -32
WIRE 80 96 80 -64
WIRE 80 96 -288 96
WIRE 208 96 208 64
WIRE 208 96 80 96
WIRE -288 144 -288 96
FLAG -288 144 0
SYMBOL ind 192 -32 R0
SYMATTR InstName L1
SYMATTR Value 16.2m
SYMBOL res 192 -144 R0
SYMATTR InstName R1
SYMATTR Value 350
SYMBOL cap 192 -224 R0
SYMATTR InstName C2
SYMATTR Value 1600p
SYMBOL voltage -288 -128 R0
WINDOW 3 24 44 Left 2
WINDOW 123 24 72 Left 2
WINDOW 39 0 0 Left 0
SYMATTR Value 0
SYMATTR Value2 AC 10 0
SYMATTR InstName V1
SYMBOL res 48 -304 R90
WINDOW 0 0 56 VBottom 2
WINDOW 3 32 56 VTop 2
SYMATTR InstName R2
SYMATTR Value 1k
SYMBOL cap 64 -128 R0
SYMATTR InstName C1
SYMATTR Value 2430p
SYMBOL ind -224 -272 R270
WINDOW 0 32 56 VTop 2
WINDOW 3 5 56 VBottom 2
SYMATTR InstName L2
SYMATTR Value 85µ
TEXT -320 168 Left 2 !.ac dec 1000 30k 60k
